*SPEF "ieee 1481-1999"
*DESIGN "gonsolo"
*DATE "11:11:11 Fri 11 11, 1111"
*VENDOR "OpenRCX"
*PROGRAM "Parallel Extraction"
*VERSION "1.0"
*DESIGN_FLOW "NAME_SCOPE LOCAL" "PIN_CAP NONE"
*DIVIDER /
*DELIMITER :
*BUS_DELIMITER []
*T_UNIT 1 NS
*C_UNIT 1 PF
*R_UNIT 1 OHM
*L_UNIT 1 HENRY

*NAME_MAP
*1 io_in[0]
*2 io_in[10]
*3 io_in[11]
*4 io_in[12]
*5 io_in[13]
*6 io_in[14]
*7 io_in[15]
*8 io_in[1]
*9 io_in[2]
*10 io_in[3]
*11 io_in[4]
*12 io_in[5]
*13 io_in[6]
*14 io_in[7]
*15 io_in[8]
*16 io_in[9]
*17 io_oeb[0]
*18 io_oeb[10]
*19 io_oeb[11]
*20 io_oeb[12]
*21 io_oeb[13]
*22 io_oeb[14]
*23 io_oeb[15]
*24 io_oeb[1]
*25 io_oeb[2]
*26 io_oeb[3]
*27 io_oeb[4]
*28 io_oeb[5]
*29 io_oeb[6]
*30 io_oeb[7]
*31 io_oeb[8]
*32 io_oeb[9]
*33 net36
*34 net28
*35 net29
*36 net42
*37 net30
*38 net31
*39 net32
*40 net37
*41 net38
*42 net39
*43 net24
*44 net25
*45 net40
*46 net26
*47 net41
*48 net27
*49 net33
*50 net34
*51 net35
*54 wb_clk_i
*55 wb_rst_i
*56 net1
*57 net10
*58 net11
*59 net12
*60 net13
*61 net14
*62 net15
*63 net16
*64 net17
*65 net18
*66 net19
*67 net2
*68 net20
*69 net21
*70 net22
*71 net23
*72 net3
*73 net4
*74 net5
*75 net6
*76 net7
*77 net8
*78 net9
*79 ANTENNA_1
*80 ANTENNA_10
*81 ANTENNA_11
*82 ANTENNA_12
*83 ANTENNA_13
*84 ANTENNA_14
*85 ANTENNA_15
*86 ANTENNA_16
*87 ANTENNA_17
*88 ANTENNA_2
*89 ANTENNA_3
*90 ANTENNA_4
*91 ANTENNA_5
*92 ANTENNA_6
*93 ANTENNA_7
*94 ANTENNA_8
*95 ANTENNA_9
*96 ANTENNA__19__I
*97 ANTENNA__20__I
*98 ANTENNA__21__I
*99 ANTENNA__22__I
*100 ANTENNA__23__I
*101 ANTENNA__24__I
*102 ANTENNA__25__I
*103 ANTENNA__26__I
*104 ANTENNA__27__I
*105 ANTENNA__28__I
*106 ANTENNA__29__I
*107 ANTENNA__30__I
*108 ANTENNA__31__I
*109 ANTENNA__32__I
*110 ANTENNA__33__I
*111 ANTENNA__34__I
*112 ANTENNA_fanout18_I
*113 ANTENNA_fanout19_I
*114 ANTENNA_fanout20_I
*115 ANTENNA_fanout21_I
*116 ANTENNA_fanout22_I
*117 ANTENNA_fanout23_I
*118 ANTENNA_input1_I
*119 ANTENNA_output15_I
*120 FILLER_0_0_1022
*121 FILLER_0_0_104
*122 FILLER_0_0_1056
*123 FILLER_0_0_1090
*124 FILLER_0_0_1124
*125 FILLER_0_0_1158
*126 FILLER_0_0_1192
*127 FILLER_0_0_1226
*128 FILLER_0_0_1260
*129 FILLER_0_0_1294
*130 FILLER_0_0_1328
*131 FILLER_0_0_1362
*132 FILLER_0_0_138
*133 FILLER_0_0_1396
*134 FILLER_0_0_1430
*135 FILLER_0_0_1464
*136 FILLER_0_0_1480
*137 FILLER_0_0_1498
*138 FILLER_0_0_1502
*139 FILLER_0_0_1518
*140 FILLER_0_0_1526
*141 FILLER_0_0_1532
*142 FILLER_0_0_1566
*143 FILLER_0_0_1600
*144 FILLER_0_0_1634
*145 FILLER_0_0_1668
*146 FILLER_0_0_1702
*147 FILLER_0_0_172
*148 FILLER_0_0_1736
*149 FILLER_0_0_1770
*150 FILLER_0_0_1804
*151 FILLER_0_0_1838
*152 FILLER_0_0_1872
*153 FILLER_0_0_1906
*154 FILLER_0_0_1940
*155 FILLER_0_0_1974
*156 FILLER_0_0_2
*157 FILLER_0_0_2008
*158 FILLER_0_0_2042
*159 FILLER_0_0_206
*160 FILLER_0_0_2076
*161 FILLER_0_0_2110
*162 FILLER_0_0_2144
*163 FILLER_0_0_2178
*164 FILLER_0_0_2212
*165 FILLER_0_0_2246
*166 FILLER_0_0_2280
*167 FILLER_0_0_2314
*168 FILLER_0_0_2348
*169 FILLER_0_0_2382
*170 FILLER_0_0_240
*171 FILLER_0_0_2416
*172 FILLER_0_0_2450
*173 FILLER_0_0_2484
*174 FILLER_0_0_2486
*175 FILLER_0_0_2491
*176 FILLER_0_0_2507
*177 FILLER_0_0_2515
*178 FILLER_0_0_2518
*179 FILLER_0_0_2552
*180 FILLER_0_0_2586
*181 FILLER_0_0_2620
*182 FILLER_0_0_2654
*183 FILLER_0_0_2688
*184 FILLER_0_0_2722
*185 FILLER_0_0_274
*186 FILLER_0_0_2756
*187 FILLER_0_0_2790
*188 FILLER_0_0_2824
*189 FILLER_0_0_2858
*190 FILLER_0_0_2892
*191 FILLER_0_0_2926
*192 FILLER_0_0_2960
*193 FILLER_0_0_2994
*194 FILLER_0_0_3028
*195 FILLER_0_0_3062
*196 FILLER_0_0_308
*197 FILLER_0_0_3096
*198 FILLER_0_0_3130
*199 FILLER_0_0_3164
*200 FILLER_0_0_3198
*201 FILLER_0_0_3232
*202 FILLER_0_0_3266
*203 FILLER_0_0_3300
*204 FILLER_0_0_3334
*205 FILLER_0_0_3368
*206 FILLER_0_0_3402
*207 FILLER_0_0_342
*208 FILLER_0_0_3436
*209 FILLER_0_0_3470
*210 FILLER_0_0_3486
*211 FILLER_0_0_3491
*212 FILLER_0_0_3499
*213 FILLER_0_0_3501
*214 FILLER_0_0_3504
*215 FILLER_0_0_3538
*216 FILLER_0_0_3572
*217 FILLER_0_0_36
*218 FILLER_0_0_3606
*219 FILLER_0_0_3640
*220 FILLER_0_0_3674
*221 FILLER_0_0_3708
*222 FILLER_0_0_3742
*223 FILLER_0_0_376
*224 FILLER_0_0_3776
*225 FILLER_0_0_3810
*226 FILLER_0_0_3844
*227 FILLER_0_0_3878
*228 FILLER_0_0_3912
*229 FILLER_0_0_3946
*230 FILLER_0_0_3980
*231 FILLER_0_0_4014
*232 FILLER_0_0_4048
*233 FILLER_0_0_4082
*234 FILLER_0_0_410
*235 FILLER_0_0_4116
*236 FILLER_0_0_4150
*237 FILLER_0_0_4184
*238 FILLER_0_0_4218
*239 FILLER_0_0_4252
*240 FILLER_0_0_4286
*241 FILLER_0_0_4320
*242 FILLER_0_0_4354
*243 FILLER_0_0_4388
*244 FILLER_0_0_4422
*245 FILLER_0_0_444
*246 FILLER_0_0_4456
*247 FILLER_0_0_4494
*248 FILLER_0_0_4510
*249 FILLER_0_0_4518
*250 FILLER_0_0_4524
*251 FILLER_0_0_4558
*252 FILLER_0_0_4592
*253 FILLER_0_0_4626
*254 FILLER_0_0_4660
*255 FILLER_0_0_4694
*256 FILLER_0_0_4728
*257 FILLER_0_0_4762
*258 FILLER_0_0_478
*259 FILLER_0_0_4796
*260 FILLER_0_0_4830
*261 FILLER_0_0_4864
*262 FILLER_0_0_4898
*263 FILLER_0_0_4932
*264 FILLER_0_0_4966
*265 FILLER_0_0_512
*266 FILLER_0_0_546
*267 FILLER_0_0_580
*268 FILLER_0_0_614
*269 FILLER_0_0_648
*270 FILLER_0_0_682
*271 FILLER_0_0_70
*272 FILLER_0_0_716
*273 FILLER_0_0_750
*274 FILLER_0_0_784
*275 FILLER_0_0_818
*276 FILLER_0_0_852
*277 FILLER_0_0_886
*278 FILLER_0_0_920
*279 FILLER_0_0_954
*280 FILLER_0_0_988
*281 FILLER_0_100_101
*282 FILLER_0_100_1011
*283 FILLER_0_100_1017
*284 FILLER_0_100_107
*285 FILLER_0_100_1081
*286 FILLER_0_100_1087
*287 FILLER_0_100_1151
*288 FILLER_0_100_1157
*289 FILLER_0_100_1221
*290 FILLER_0_100_1227
*291 FILLER_0_100_1291
*292 FILLER_0_100_1297
*293 FILLER_0_100_1361
*294 FILLER_0_100_1367
*295 FILLER_0_100_1431
*296 FILLER_0_100_1437
*297 FILLER_0_100_1501
*298 FILLER_0_100_1507
*299 FILLER_0_100_1571
*300 FILLER_0_100_1577
*301 FILLER_0_100_1641
*302 FILLER_0_100_1647
*303 FILLER_0_100_171
*304 FILLER_0_100_1711
*305 FILLER_0_100_1717
*306 FILLER_0_100_177
*307 FILLER_0_100_1781
*308 FILLER_0_100_1787
*309 FILLER_0_100_1851
*310 FILLER_0_100_1857
*311 FILLER_0_100_1921
*312 FILLER_0_100_1927
*313 FILLER_0_100_1991
*314 FILLER_0_100_1997
*315 FILLER_0_100_2
*316 FILLER_0_100_2061
*317 FILLER_0_100_2067
*318 FILLER_0_100_2131
*319 FILLER_0_100_2137
*320 FILLER_0_100_2201
*321 FILLER_0_100_2207
*322 FILLER_0_100_2271
*323 FILLER_0_100_2277
*324 FILLER_0_100_2341
*325 FILLER_0_100_2347
*326 FILLER_0_100_241
*327 FILLER_0_100_2411
*328 FILLER_0_100_2417
*329 FILLER_0_100_247
*330 FILLER_0_100_2481
*331 FILLER_0_100_2487
*332 FILLER_0_100_2551
*333 FILLER_0_100_2557
*334 FILLER_0_100_2621
*335 FILLER_0_100_2627
*336 FILLER_0_100_2691
*337 FILLER_0_100_2697
*338 FILLER_0_100_2761
*339 FILLER_0_100_2767
*340 FILLER_0_100_2831
*341 FILLER_0_100_2837
*342 FILLER_0_100_2901
*343 FILLER_0_100_2907
*344 FILLER_0_100_2971
*345 FILLER_0_100_2977
*346 FILLER_0_100_3041
*347 FILLER_0_100_3047
*348 FILLER_0_100_311
*349 FILLER_0_100_3111
*350 FILLER_0_100_3117
*351 FILLER_0_100_317
*352 FILLER_0_100_3181
*353 FILLER_0_100_3187
*354 FILLER_0_100_3251
*355 FILLER_0_100_3257
*356 FILLER_0_100_3321
*357 FILLER_0_100_3327
*358 FILLER_0_100_3391
*359 FILLER_0_100_3397
*360 FILLER_0_100_34
*361 FILLER_0_100_3461
*362 FILLER_0_100_3467
*363 FILLER_0_100_3531
*364 FILLER_0_100_3537
*365 FILLER_0_100_3601
*366 FILLER_0_100_3607
*367 FILLER_0_100_3671
*368 FILLER_0_100_3677
*369 FILLER_0_100_37
*370 FILLER_0_100_3741
*371 FILLER_0_100_3747
*372 FILLER_0_100_381
*373 FILLER_0_100_3811
*374 FILLER_0_100_3817
*375 FILLER_0_100_387
*376 FILLER_0_100_3881
*377 FILLER_0_100_3887
*378 FILLER_0_100_3951
*379 FILLER_0_100_3957
*380 FILLER_0_100_4021
*381 FILLER_0_100_4027
*382 FILLER_0_100_4091
*383 FILLER_0_100_4097
*384 FILLER_0_100_4161
*385 FILLER_0_100_4167
*386 FILLER_0_100_4231
*387 FILLER_0_100_4237
*388 FILLER_0_100_4301
*389 FILLER_0_100_4307
*390 FILLER_0_100_4371
*391 FILLER_0_100_4377
*392 FILLER_0_100_4441
*393 FILLER_0_100_4447
*394 FILLER_0_100_451
*395 FILLER_0_100_4511
*396 FILLER_0_100_4517
*397 FILLER_0_100_457
*398 FILLER_0_100_4581
*399 FILLER_0_100_4587
*400 FILLER_0_100_4651
*401 FILLER_0_100_4657
*402 FILLER_0_100_4721
*403 FILLER_0_100_4727
*404 FILLER_0_100_4791
*405 FILLER_0_100_4797
*406 FILLER_0_100_4861
*407 FILLER_0_100_4867
*408 FILLER_0_100_4931
*409 FILLER_0_100_4937
*410 FILLER_0_100_4945
*411 FILLER_0_100_4947
*412 FILLER_0_100_521
*413 FILLER_0_100_527
*414 FILLER_0_100_591
*415 FILLER_0_100_597
*416 FILLER_0_100_661
*417 FILLER_0_100_667
*418 FILLER_0_100_731
*419 FILLER_0_100_737
*420 FILLER_0_100_801
*421 FILLER_0_100_807
*422 FILLER_0_100_871
*423 FILLER_0_100_877
*424 FILLER_0_100_941
*425 FILLER_0_100_947
*426 FILLER_0_101_1046
*427 FILLER_0_101_1052
*428 FILLER_0_101_1116
*429 FILLER_0_101_1122
*430 FILLER_0_101_1186
*431 FILLER_0_101_1192
*432 FILLER_0_101_1256
*433 FILLER_0_101_1262
*434 FILLER_0_101_1326
*435 FILLER_0_101_1332
*436 FILLER_0_101_136
*437 FILLER_0_101_1396
*438 FILLER_0_101_1402
*439 FILLER_0_101_142
*440 FILLER_0_101_1466
*441 FILLER_0_101_1472
*442 FILLER_0_101_1536
*443 FILLER_0_101_1542
*444 FILLER_0_101_1606
*445 FILLER_0_101_1612
*446 FILLER_0_101_1676
*447 FILLER_0_101_1682
*448 FILLER_0_101_1746
*449 FILLER_0_101_1752
*450 FILLER_0_101_1816
*451 FILLER_0_101_1822
*452 FILLER_0_101_1886
*453 FILLER_0_101_1892
*454 FILLER_0_101_1956
*455 FILLER_0_101_1962
*456 FILLER_0_101_2
*457 FILLER_0_101_2026
*458 FILLER_0_101_2032
*459 FILLER_0_101_206
*460 FILLER_0_101_2096
*461 FILLER_0_101_2102
*462 FILLER_0_101_212
*463 FILLER_0_101_2166
*464 FILLER_0_101_2172
*465 FILLER_0_101_2236
*466 FILLER_0_101_2242
*467 FILLER_0_101_2306
*468 FILLER_0_101_2312
*469 FILLER_0_101_2376
*470 FILLER_0_101_2382
*471 FILLER_0_101_2446
*472 FILLER_0_101_2452
*473 FILLER_0_101_2516
*474 FILLER_0_101_2522
*475 FILLER_0_101_2586
*476 FILLER_0_101_2592
*477 FILLER_0_101_2656
*478 FILLER_0_101_2662
*479 FILLER_0_101_2726
*480 FILLER_0_101_2732
*481 FILLER_0_101_276
*482 FILLER_0_101_2796
*483 FILLER_0_101_2802
*484 FILLER_0_101_282
*485 FILLER_0_101_2866
*486 FILLER_0_101_2872
*487 FILLER_0_101_2936
*488 FILLER_0_101_2942
*489 FILLER_0_101_3006
*490 FILLER_0_101_3012
*491 FILLER_0_101_3076
*492 FILLER_0_101_3082
*493 FILLER_0_101_3146
*494 FILLER_0_101_3152
*495 FILLER_0_101_3216
*496 FILLER_0_101_3222
*497 FILLER_0_101_3286
*498 FILLER_0_101_3292
*499 FILLER_0_101_3356
*500 FILLER_0_101_3362
*501 FILLER_0_101_3426
*502 FILLER_0_101_3432
*503 FILLER_0_101_346
*504 FILLER_0_101_3496
*505 FILLER_0_101_3502
*506 FILLER_0_101_352
*507 FILLER_0_101_3566
*508 FILLER_0_101_3572
*509 FILLER_0_101_3636
*510 FILLER_0_101_3642
*511 FILLER_0_101_3706
*512 FILLER_0_101_3712
*513 FILLER_0_101_3776
*514 FILLER_0_101_3782
*515 FILLER_0_101_3846
*516 FILLER_0_101_3852
*517 FILLER_0_101_3916
*518 FILLER_0_101_3922
*519 FILLER_0_101_3986
*520 FILLER_0_101_3992
*521 FILLER_0_101_4056
*522 FILLER_0_101_4062
*523 FILLER_0_101_4126
*524 FILLER_0_101_4132
*525 FILLER_0_101_416
*526 FILLER_0_101_4196
*527 FILLER_0_101_4202
*528 FILLER_0_101_422
*529 FILLER_0_101_4266
*530 FILLER_0_101_4272
*531 FILLER_0_101_4336
*532 FILLER_0_101_4342
*533 FILLER_0_101_4406
*534 FILLER_0_101_4412
*535 FILLER_0_101_4476
*536 FILLER_0_101_4482
*537 FILLER_0_101_4546
*538 FILLER_0_101_4552
*539 FILLER_0_101_4616
*540 FILLER_0_101_4622
*541 FILLER_0_101_4686
*542 FILLER_0_101_4692
*543 FILLER_0_101_4756
*544 FILLER_0_101_4762
*545 FILLER_0_101_4826
*546 FILLER_0_101_4832
*547 FILLER_0_101_486
*548 FILLER_0_101_4896
*549 FILLER_0_101_4902
*550 FILLER_0_101_492
*551 FILLER_0_101_4966
*552 FILLER_0_101_4972
*553 FILLER_0_101_556
*554 FILLER_0_101_562
*555 FILLER_0_101_626
*556 FILLER_0_101_632
*557 FILLER_0_101_66
*558 FILLER_0_101_696
*559 FILLER_0_101_702
*560 FILLER_0_101_72
*561 FILLER_0_101_766
*562 FILLER_0_101_772
*563 FILLER_0_101_836
*564 FILLER_0_101_842
*565 FILLER_0_101_906
*566 FILLER_0_101_912
*567 FILLER_0_101_976
*568 FILLER_0_101_982
*569 FILLER_0_102_101
*570 FILLER_0_102_1011
*571 FILLER_0_102_1017
*572 FILLER_0_102_107
*573 FILLER_0_102_1081
*574 FILLER_0_102_1087
*575 FILLER_0_102_1151
*576 FILLER_0_102_1157
*577 FILLER_0_102_1221
*578 FILLER_0_102_1227
*579 FILLER_0_102_1291
*580 FILLER_0_102_1297
*581 FILLER_0_102_1361
*582 FILLER_0_102_1367
*583 FILLER_0_102_1431
*584 FILLER_0_102_1437
*585 FILLER_0_102_1501
*586 FILLER_0_102_1507
*587 FILLER_0_102_1571
*588 FILLER_0_102_1577
*589 FILLER_0_102_1641
*590 FILLER_0_102_1647
*591 FILLER_0_102_171
*592 FILLER_0_102_1711
*593 FILLER_0_102_1717
*594 FILLER_0_102_177
*595 FILLER_0_102_1781
*596 FILLER_0_102_1787
*597 FILLER_0_102_1851
*598 FILLER_0_102_1857
*599 FILLER_0_102_1921
*600 FILLER_0_102_1927
*601 FILLER_0_102_1991
*602 FILLER_0_102_1997
*603 FILLER_0_102_2
*604 FILLER_0_102_2061
*605 FILLER_0_102_2067
*606 FILLER_0_102_2131
*607 FILLER_0_102_2137
*608 FILLER_0_102_2201
*609 FILLER_0_102_2207
*610 FILLER_0_102_2271
*611 FILLER_0_102_2277
*612 FILLER_0_102_2341
*613 FILLER_0_102_2347
*614 FILLER_0_102_241
*615 FILLER_0_102_2411
*616 FILLER_0_102_2417
*617 FILLER_0_102_247
*618 FILLER_0_102_2481
*619 FILLER_0_102_2487
*620 FILLER_0_102_2551
*621 FILLER_0_102_2557
*622 FILLER_0_102_2621
*623 FILLER_0_102_2627
*624 FILLER_0_102_2691
*625 FILLER_0_102_2697
*626 FILLER_0_102_2761
*627 FILLER_0_102_2767
*628 FILLER_0_102_2831
*629 FILLER_0_102_2837
*630 FILLER_0_102_2901
*631 FILLER_0_102_2907
*632 FILLER_0_102_2971
*633 FILLER_0_102_2977
*634 FILLER_0_102_3041
*635 FILLER_0_102_3047
*636 FILLER_0_102_311
*637 FILLER_0_102_3111
*638 FILLER_0_102_3117
*639 FILLER_0_102_317
*640 FILLER_0_102_3181
*641 FILLER_0_102_3187
*642 FILLER_0_102_3251
*643 FILLER_0_102_3257
*644 FILLER_0_102_3321
*645 FILLER_0_102_3327
*646 FILLER_0_102_3391
*647 FILLER_0_102_3397
*648 FILLER_0_102_34
*649 FILLER_0_102_3461
*650 FILLER_0_102_3467
*651 FILLER_0_102_3531
*652 FILLER_0_102_3537
*653 FILLER_0_102_3601
*654 FILLER_0_102_3607
*655 FILLER_0_102_3671
*656 FILLER_0_102_3677
*657 FILLER_0_102_37
*658 FILLER_0_102_3741
*659 FILLER_0_102_3747
*660 FILLER_0_102_381
*661 FILLER_0_102_3811
*662 FILLER_0_102_3817
*663 FILLER_0_102_387
*664 FILLER_0_102_3881
*665 FILLER_0_102_3887
*666 FILLER_0_102_3951
*667 FILLER_0_102_3957
*668 FILLER_0_102_4021
*669 FILLER_0_102_4027
*670 FILLER_0_102_4091
*671 FILLER_0_102_4097
*672 FILLER_0_102_4161
*673 FILLER_0_102_4167
*674 FILLER_0_102_4231
*675 FILLER_0_102_4237
*676 FILLER_0_102_4301
*677 FILLER_0_102_4307
*678 FILLER_0_102_4371
*679 FILLER_0_102_4377
*680 FILLER_0_102_4441
*681 FILLER_0_102_4447
*682 FILLER_0_102_451
*683 FILLER_0_102_4511
*684 FILLER_0_102_4517
*685 FILLER_0_102_457
*686 FILLER_0_102_4581
*687 FILLER_0_102_4587
*688 FILLER_0_102_4651
*689 FILLER_0_102_4657
*690 FILLER_0_102_4721
*691 FILLER_0_102_4727
*692 FILLER_0_102_4791
*693 FILLER_0_102_4797
*694 FILLER_0_102_4861
*695 FILLER_0_102_4867
*696 FILLER_0_102_4931
*697 FILLER_0_102_4937
*698 FILLER_0_102_4969
*699 FILLER_0_102_4973
*700 FILLER_0_102_521
*701 FILLER_0_102_527
*702 FILLER_0_102_591
*703 FILLER_0_102_597
*704 FILLER_0_102_661
*705 FILLER_0_102_667
*706 FILLER_0_102_731
*707 FILLER_0_102_737
*708 FILLER_0_102_801
*709 FILLER_0_102_807
*710 FILLER_0_102_871
*711 FILLER_0_102_877
*712 FILLER_0_102_941
*713 FILLER_0_102_947
*714 FILLER_0_103_1046
*715 FILLER_0_103_1052
*716 FILLER_0_103_1116
*717 FILLER_0_103_1122
*718 FILLER_0_103_1186
*719 FILLER_0_103_1192
*720 FILLER_0_103_1256
*721 FILLER_0_103_1262
*722 FILLER_0_103_1326
*723 FILLER_0_103_1332
*724 FILLER_0_103_136
*725 FILLER_0_103_1396
*726 FILLER_0_103_1402
*727 FILLER_0_103_142
*728 FILLER_0_103_1466
*729 FILLER_0_103_1472
*730 FILLER_0_103_1536
*731 FILLER_0_103_1542
*732 FILLER_0_103_1606
*733 FILLER_0_103_1612
*734 FILLER_0_103_1676
*735 FILLER_0_103_1682
*736 FILLER_0_103_1746
*737 FILLER_0_103_1752
*738 FILLER_0_103_1816
*739 FILLER_0_103_1822
*740 FILLER_0_103_1886
*741 FILLER_0_103_1892
*742 FILLER_0_103_1956
*743 FILLER_0_103_1962
*744 FILLER_0_103_2
*745 FILLER_0_103_2026
*746 FILLER_0_103_2032
*747 FILLER_0_103_206
*748 FILLER_0_103_2096
*749 FILLER_0_103_2102
*750 FILLER_0_103_212
*751 FILLER_0_103_2166
*752 FILLER_0_103_2172
*753 FILLER_0_103_2236
*754 FILLER_0_103_2242
*755 FILLER_0_103_2306
*756 FILLER_0_103_2312
*757 FILLER_0_103_2376
*758 FILLER_0_103_2382
*759 FILLER_0_103_2446
*760 FILLER_0_103_2452
*761 FILLER_0_103_2516
*762 FILLER_0_103_2522
*763 FILLER_0_103_2586
*764 FILLER_0_103_2592
*765 FILLER_0_103_2656
*766 FILLER_0_103_2662
*767 FILLER_0_103_2726
*768 FILLER_0_103_2732
*769 FILLER_0_103_276
*770 FILLER_0_103_2796
*771 FILLER_0_103_2802
*772 FILLER_0_103_282
*773 FILLER_0_103_2866
*774 FILLER_0_103_2872
*775 FILLER_0_103_2936
*776 FILLER_0_103_2942
*777 FILLER_0_103_3006
*778 FILLER_0_103_3012
*779 FILLER_0_103_3076
*780 FILLER_0_103_3082
*781 FILLER_0_103_3146
*782 FILLER_0_103_3152
*783 FILLER_0_103_3216
*784 FILLER_0_103_3222
*785 FILLER_0_103_3286
*786 FILLER_0_103_3292
*787 FILLER_0_103_3356
*788 FILLER_0_103_3362
*789 FILLER_0_103_3426
*790 FILLER_0_103_3432
*791 FILLER_0_103_346
*792 FILLER_0_103_3496
*793 FILLER_0_103_3502
*794 FILLER_0_103_352
*795 FILLER_0_103_3566
*796 FILLER_0_103_3572
*797 FILLER_0_103_3636
*798 FILLER_0_103_3642
*799 FILLER_0_103_3706
*800 FILLER_0_103_3712
*801 FILLER_0_103_3776
*802 FILLER_0_103_3782
*803 FILLER_0_103_3846
*804 FILLER_0_103_3852
*805 FILLER_0_103_3916
*806 FILLER_0_103_3922
*807 FILLER_0_103_3986
*808 FILLER_0_103_3992
*809 FILLER_0_103_4056
*810 FILLER_0_103_4062
*811 FILLER_0_103_4126
*812 FILLER_0_103_4132
*813 FILLER_0_103_416
*814 FILLER_0_103_4196
*815 FILLER_0_103_4202
*816 FILLER_0_103_422
*817 FILLER_0_103_4266
*818 FILLER_0_103_4272
*819 FILLER_0_103_4336
*820 FILLER_0_103_4342
*821 FILLER_0_103_4406
*822 FILLER_0_103_4412
*823 FILLER_0_103_4476
*824 FILLER_0_103_4482
*825 FILLER_0_103_4546
*826 FILLER_0_103_4552
*827 FILLER_0_103_4616
*828 FILLER_0_103_4622
*829 FILLER_0_103_4686
*830 FILLER_0_103_4692
*831 FILLER_0_103_4756
*832 FILLER_0_103_4762
*833 FILLER_0_103_4826
*834 FILLER_0_103_4832
*835 FILLER_0_103_486
*836 FILLER_0_103_4896
*837 FILLER_0_103_4902
*838 FILLER_0_103_492
*839 FILLER_0_103_4966
*840 FILLER_0_103_4972
*841 FILLER_0_103_556
*842 FILLER_0_103_562
*843 FILLER_0_103_626
*844 FILLER_0_103_632
*845 FILLER_0_103_66
*846 FILLER_0_103_696
*847 FILLER_0_103_702
*848 FILLER_0_103_72
*849 FILLER_0_103_766
*850 FILLER_0_103_772
*851 FILLER_0_103_836
*852 FILLER_0_103_842
*853 FILLER_0_103_906
*854 FILLER_0_103_912
*855 FILLER_0_103_976
*856 FILLER_0_103_982
*857 FILLER_0_104_101
*858 FILLER_0_104_1011
*859 FILLER_0_104_1017
*860 FILLER_0_104_107
*861 FILLER_0_104_1081
*862 FILLER_0_104_1087
*863 FILLER_0_104_1151
*864 FILLER_0_104_1157
*865 FILLER_0_104_1221
*866 FILLER_0_104_1227
*867 FILLER_0_104_1291
*868 FILLER_0_104_1297
*869 FILLER_0_104_1361
*870 FILLER_0_104_1367
*871 FILLER_0_104_1431
*872 FILLER_0_104_1437
*873 FILLER_0_104_1501
*874 FILLER_0_104_1507
*875 FILLER_0_104_1571
*876 FILLER_0_104_1577
*877 FILLER_0_104_1641
*878 FILLER_0_104_1647
*879 FILLER_0_104_171
*880 FILLER_0_104_1711
*881 FILLER_0_104_1717
*882 FILLER_0_104_177
*883 FILLER_0_104_1781
*884 FILLER_0_104_1787
*885 FILLER_0_104_1851
*886 FILLER_0_104_1857
*887 FILLER_0_104_1921
*888 FILLER_0_104_1927
*889 FILLER_0_104_1991
*890 FILLER_0_104_1997
*891 FILLER_0_104_2
*892 FILLER_0_104_2061
*893 FILLER_0_104_2067
*894 FILLER_0_104_2131
*895 FILLER_0_104_2137
*896 FILLER_0_104_2201
*897 FILLER_0_104_2207
*898 FILLER_0_104_2271
*899 FILLER_0_104_2277
*900 FILLER_0_104_2341
*901 FILLER_0_104_2347
*902 FILLER_0_104_241
*903 FILLER_0_104_2411
*904 FILLER_0_104_2417
*905 FILLER_0_104_247
*906 FILLER_0_104_2481
*907 FILLER_0_104_2487
*908 FILLER_0_104_2551
*909 FILLER_0_104_2557
*910 FILLER_0_104_2621
*911 FILLER_0_104_2627
*912 FILLER_0_104_2691
*913 FILLER_0_104_2697
*914 FILLER_0_104_2761
*915 FILLER_0_104_2767
*916 FILLER_0_104_2831
*917 FILLER_0_104_2837
*918 FILLER_0_104_2901
*919 FILLER_0_104_2907
*920 FILLER_0_104_2971
*921 FILLER_0_104_2977
*922 FILLER_0_104_3041
*923 FILLER_0_104_3047
*924 FILLER_0_104_311
*925 FILLER_0_104_3111
*926 FILLER_0_104_3117
*927 FILLER_0_104_317
*928 FILLER_0_104_3181
*929 FILLER_0_104_3187
*930 FILLER_0_104_3251
*931 FILLER_0_104_3257
*932 FILLER_0_104_3321
*933 FILLER_0_104_3327
*934 FILLER_0_104_3391
*935 FILLER_0_104_3397
*936 FILLER_0_104_34
*937 FILLER_0_104_3461
*938 FILLER_0_104_3467
*939 FILLER_0_104_3531
*940 FILLER_0_104_3537
*941 FILLER_0_104_3601
*942 FILLER_0_104_3607
*943 FILLER_0_104_3671
*944 FILLER_0_104_3677
*945 FILLER_0_104_37
*946 FILLER_0_104_3741
*947 FILLER_0_104_3747
*948 FILLER_0_104_381
*949 FILLER_0_104_3811
*950 FILLER_0_104_3817
*951 FILLER_0_104_387
*952 FILLER_0_104_3881
*953 FILLER_0_104_3887
*954 FILLER_0_104_3951
*955 FILLER_0_104_3957
*956 FILLER_0_104_4021
*957 FILLER_0_104_4027
*958 FILLER_0_104_4091
*959 FILLER_0_104_4097
*960 FILLER_0_104_4161
*961 FILLER_0_104_4167
*962 FILLER_0_104_4231
*963 FILLER_0_104_4237
*964 FILLER_0_104_4301
*965 FILLER_0_104_4307
*966 FILLER_0_104_4371
*967 FILLER_0_104_4377
*968 FILLER_0_104_4441
*969 FILLER_0_104_4447
*970 FILLER_0_104_451
*971 FILLER_0_104_4511
*972 FILLER_0_104_4517
*973 FILLER_0_104_457
*974 FILLER_0_104_4581
*975 FILLER_0_104_4587
*976 FILLER_0_104_4651
*977 FILLER_0_104_4657
*978 FILLER_0_104_4721
*979 FILLER_0_104_4727
*980 FILLER_0_104_4791
*981 FILLER_0_104_4797
*982 FILLER_0_104_4861
*983 FILLER_0_104_4867
*984 FILLER_0_104_4931
*985 FILLER_0_104_4937
*986 FILLER_0_104_4969
*987 FILLER_0_104_4973
*988 FILLER_0_104_521
*989 FILLER_0_104_527
*990 FILLER_0_104_591
*991 FILLER_0_104_597
*992 FILLER_0_104_661
*993 FILLER_0_104_667
*994 FILLER_0_104_731
*995 FILLER_0_104_737
*996 FILLER_0_104_801
*997 FILLER_0_104_807
*998 FILLER_0_104_871
*999 FILLER_0_104_877
*1000 FILLER_0_104_941
*1001 FILLER_0_104_947
*1002 FILLER_0_105_1046
*1003 FILLER_0_105_1052
*1004 FILLER_0_105_1116
*1005 FILLER_0_105_1122
*1006 FILLER_0_105_1186
*1007 FILLER_0_105_1192
*1008 FILLER_0_105_1256
*1009 FILLER_0_105_1262
*1010 FILLER_0_105_1326
*1011 FILLER_0_105_1332
*1012 FILLER_0_105_136
*1013 FILLER_0_105_1396
*1014 FILLER_0_105_1402
*1015 FILLER_0_105_142
*1016 FILLER_0_105_1466
*1017 FILLER_0_105_1472
*1018 FILLER_0_105_1536
*1019 FILLER_0_105_1542
*1020 FILLER_0_105_1606
*1021 FILLER_0_105_1612
*1022 FILLER_0_105_1676
*1023 FILLER_0_105_1682
*1024 FILLER_0_105_1746
*1025 FILLER_0_105_1752
*1026 FILLER_0_105_1816
*1027 FILLER_0_105_1822
*1028 FILLER_0_105_1886
*1029 FILLER_0_105_1892
*1030 FILLER_0_105_1956
*1031 FILLER_0_105_1962
*1032 FILLER_0_105_2
*1033 FILLER_0_105_2026
*1034 FILLER_0_105_2032
*1035 FILLER_0_105_206
*1036 FILLER_0_105_2096
*1037 FILLER_0_105_2102
*1038 FILLER_0_105_212
*1039 FILLER_0_105_2166
*1040 FILLER_0_105_2172
*1041 FILLER_0_105_2236
*1042 FILLER_0_105_2242
*1043 FILLER_0_105_2306
*1044 FILLER_0_105_2312
*1045 FILLER_0_105_2376
*1046 FILLER_0_105_2382
*1047 FILLER_0_105_2446
*1048 FILLER_0_105_2452
*1049 FILLER_0_105_2516
*1050 FILLER_0_105_2522
*1051 FILLER_0_105_2586
*1052 FILLER_0_105_2592
*1053 FILLER_0_105_2656
*1054 FILLER_0_105_2662
*1055 FILLER_0_105_2726
*1056 FILLER_0_105_2732
*1057 FILLER_0_105_276
*1058 FILLER_0_105_2796
*1059 FILLER_0_105_2802
*1060 FILLER_0_105_282
*1061 FILLER_0_105_2866
*1062 FILLER_0_105_2872
*1063 FILLER_0_105_2936
*1064 FILLER_0_105_2942
*1065 FILLER_0_105_3006
*1066 FILLER_0_105_3012
*1067 FILLER_0_105_3076
*1068 FILLER_0_105_3082
*1069 FILLER_0_105_3146
*1070 FILLER_0_105_3152
*1071 FILLER_0_105_3216
*1072 FILLER_0_105_3222
*1073 FILLER_0_105_3286
*1074 FILLER_0_105_3292
*1075 FILLER_0_105_3356
*1076 FILLER_0_105_3362
*1077 FILLER_0_105_3426
*1078 FILLER_0_105_3432
*1079 FILLER_0_105_346
*1080 FILLER_0_105_3496
*1081 FILLER_0_105_3502
*1082 FILLER_0_105_352
*1083 FILLER_0_105_3566
*1084 FILLER_0_105_3572
*1085 FILLER_0_105_3636
*1086 FILLER_0_105_3642
*1087 FILLER_0_105_3706
*1088 FILLER_0_105_3712
*1089 FILLER_0_105_3776
*1090 FILLER_0_105_3782
*1091 FILLER_0_105_3846
*1092 FILLER_0_105_3852
*1093 FILLER_0_105_3916
*1094 FILLER_0_105_3922
*1095 FILLER_0_105_3986
*1096 FILLER_0_105_3992
*1097 FILLER_0_105_4056
*1098 FILLER_0_105_4062
*1099 FILLER_0_105_4126
*1100 FILLER_0_105_4132
*1101 FILLER_0_105_416
*1102 FILLER_0_105_4196
*1103 FILLER_0_105_4202
*1104 FILLER_0_105_422
*1105 FILLER_0_105_4266
*1106 FILLER_0_105_4272
*1107 FILLER_0_105_4336
*1108 FILLER_0_105_4342
*1109 FILLER_0_105_4406
*1110 FILLER_0_105_4412
*1111 FILLER_0_105_4476
*1112 FILLER_0_105_4482
*1113 FILLER_0_105_4546
*1114 FILLER_0_105_4552
*1115 FILLER_0_105_4616
*1116 FILLER_0_105_4622
*1117 FILLER_0_105_4686
*1118 FILLER_0_105_4692
*1119 FILLER_0_105_4756
*1120 FILLER_0_105_4762
*1121 FILLER_0_105_4826
*1122 FILLER_0_105_4832
*1123 FILLER_0_105_486
*1124 FILLER_0_105_4896
*1125 FILLER_0_105_4902
*1126 FILLER_0_105_492
*1127 FILLER_0_105_4966
*1128 FILLER_0_105_4972
*1129 FILLER_0_105_556
*1130 FILLER_0_105_562
*1131 FILLER_0_105_626
*1132 FILLER_0_105_632
*1133 FILLER_0_105_66
*1134 FILLER_0_105_696
*1135 FILLER_0_105_702
*1136 FILLER_0_105_72
*1137 FILLER_0_105_766
*1138 FILLER_0_105_772
*1139 FILLER_0_105_836
*1140 FILLER_0_105_842
*1141 FILLER_0_105_906
*1142 FILLER_0_105_912
*1143 FILLER_0_105_976
*1144 FILLER_0_105_982
*1145 FILLER_0_106_101
*1146 FILLER_0_106_1011
*1147 FILLER_0_106_1017
*1148 FILLER_0_106_107
*1149 FILLER_0_106_1081
*1150 FILLER_0_106_1087
*1151 FILLER_0_106_1151
*1152 FILLER_0_106_1157
*1153 FILLER_0_106_1221
*1154 FILLER_0_106_1227
*1155 FILLER_0_106_1291
*1156 FILLER_0_106_1297
*1157 FILLER_0_106_1361
*1158 FILLER_0_106_1367
*1159 FILLER_0_106_1431
*1160 FILLER_0_106_1437
*1161 FILLER_0_106_1501
*1162 FILLER_0_106_1507
*1163 FILLER_0_106_1571
*1164 FILLER_0_106_1577
*1165 FILLER_0_106_1641
*1166 FILLER_0_106_1647
*1167 FILLER_0_106_171
*1168 FILLER_0_106_1711
*1169 FILLER_0_106_1717
*1170 FILLER_0_106_177
*1171 FILLER_0_106_1781
*1172 FILLER_0_106_1787
*1173 FILLER_0_106_1851
*1174 FILLER_0_106_1857
*1175 FILLER_0_106_1921
*1176 FILLER_0_106_1927
*1177 FILLER_0_106_1991
*1178 FILLER_0_106_1997
*1179 FILLER_0_106_2
*1180 FILLER_0_106_2061
*1181 FILLER_0_106_2067
*1182 FILLER_0_106_2131
*1183 FILLER_0_106_2137
*1184 FILLER_0_106_2201
*1185 FILLER_0_106_2207
*1186 FILLER_0_106_2271
*1187 FILLER_0_106_2277
*1188 FILLER_0_106_2341
*1189 FILLER_0_106_2347
*1190 FILLER_0_106_241
*1191 FILLER_0_106_2411
*1192 FILLER_0_106_2417
*1193 FILLER_0_106_247
*1194 FILLER_0_106_2481
*1195 FILLER_0_106_2487
*1196 FILLER_0_106_2551
*1197 FILLER_0_106_2557
*1198 FILLER_0_106_2621
*1199 FILLER_0_106_2627
*1200 FILLER_0_106_2691
*1201 FILLER_0_106_2697
*1202 FILLER_0_106_2761
*1203 FILLER_0_106_2767
*1204 FILLER_0_106_2831
*1205 FILLER_0_106_2837
*1206 FILLER_0_106_2901
*1207 FILLER_0_106_2907
*1208 FILLER_0_106_2971
*1209 FILLER_0_106_2977
*1210 FILLER_0_106_3041
*1211 FILLER_0_106_3047
*1212 FILLER_0_106_311
*1213 FILLER_0_106_3111
*1214 FILLER_0_106_3117
*1215 FILLER_0_106_317
*1216 FILLER_0_106_3181
*1217 FILLER_0_106_3187
*1218 FILLER_0_106_3251
*1219 FILLER_0_106_3257
*1220 FILLER_0_106_3321
*1221 FILLER_0_106_3327
*1222 FILLER_0_106_3391
*1223 FILLER_0_106_3397
*1224 FILLER_0_106_34
*1225 FILLER_0_106_3461
*1226 FILLER_0_106_3467
*1227 FILLER_0_106_3531
*1228 FILLER_0_106_3537
*1229 FILLER_0_106_3601
*1230 FILLER_0_106_3607
*1231 FILLER_0_106_3671
*1232 FILLER_0_106_3677
*1233 FILLER_0_106_37
*1234 FILLER_0_106_3741
*1235 FILLER_0_106_3747
*1236 FILLER_0_106_381
*1237 FILLER_0_106_3811
*1238 FILLER_0_106_3817
*1239 FILLER_0_106_387
*1240 FILLER_0_106_3881
*1241 FILLER_0_106_3887
*1242 FILLER_0_106_3951
*1243 FILLER_0_106_3957
*1244 FILLER_0_106_4021
*1245 FILLER_0_106_4027
*1246 FILLER_0_106_4091
*1247 FILLER_0_106_4097
*1248 FILLER_0_106_4161
*1249 FILLER_0_106_4167
*1250 FILLER_0_106_4231
*1251 FILLER_0_106_4237
*1252 FILLER_0_106_4301
*1253 FILLER_0_106_4307
*1254 FILLER_0_106_4371
*1255 FILLER_0_106_4377
*1256 FILLER_0_106_4441
*1257 FILLER_0_106_4447
*1258 FILLER_0_106_451
*1259 FILLER_0_106_4511
*1260 FILLER_0_106_4517
*1261 FILLER_0_106_457
*1262 FILLER_0_106_4581
*1263 FILLER_0_106_4587
*1264 FILLER_0_106_4651
*1265 FILLER_0_106_4657
*1266 FILLER_0_106_4721
*1267 FILLER_0_106_4727
*1268 FILLER_0_106_4791
*1269 FILLER_0_106_4797
*1270 FILLER_0_106_4861
*1271 FILLER_0_106_4867
*1272 FILLER_0_106_4931
*1273 FILLER_0_106_4937
*1274 FILLER_0_106_4969
*1275 FILLER_0_106_4973
*1276 FILLER_0_106_521
*1277 FILLER_0_106_527
*1278 FILLER_0_106_591
*1279 FILLER_0_106_597
*1280 FILLER_0_106_661
*1281 FILLER_0_106_667
*1282 FILLER_0_106_731
*1283 FILLER_0_106_737
*1284 FILLER_0_106_801
*1285 FILLER_0_106_807
*1286 FILLER_0_106_871
*1287 FILLER_0_106_877
*1288 FILLER_0_106_941
*1289 FILLER_0_106_947
*1290 FILLER_0_107_1046
*1291 FILLER_0_107_1052
*1292 FILLER_0_107_1116
*1293 FILLER_0_107_1122
*1294 FILLER_0_107_1186
*1295 FILLER_0_107_1192
*1296 FILLER_0_107_1256
*1297 FILLER_0_107_1262
*1298 FILLER_0_107_1326
*1299 FILLER_0_107_1332
*1300 FILLER_0_107_136
*1301 FILLER_0_107_1396
*1302 FILLER_0_107_1402
*1303 FILLER_0_107_142
*1304 FILLER_0_107_1466
*1305 FILLER_0_107_1472
*1306 FILLER_0_107_1536
*1307 FILLER_0_107_1542
*1308 FILLER_0_107_1606
*1309 FILLER_0_107_1612
*1310 FILLER_0_107_1676
*1311 FILLER_0_107_1682
*1312 FILLER_0_107_1746
*1313 FILLER_0_107_1752
*1314 FILLER_0_107_1816
*1315 FILLER_0_107_1822
*1316 FILLER_0_107_1886
*1317 FILLER_0_107_1892
*1318 FILLER_0_107_1956
*1319 FILLER_0_107_1962
*1320 FILLER_0_107_2
*1321 FILLER_0_107_2026
*1322 FILLER_0_107_2032
*1323 FILLER_0_107_206
*1324 FILLER_0_107_2096
*1325 FILLER_0_107_2102
*1326 FILLER_0_107_212
*1327 FILLER_0_107_2166
*1328 FILLER_0_107_2172
*1329 FILLER_0_107_2236
*1330 FILLER_0_107_2242
*1331 FILLER_0_107_2306
*1332 FILLER_0_107_2312
*1333 FILLER_0_107_2376
*1334 FILLER_0_107_2382
*1335 FILLER_0_107_2446
*1336 FILLER_0_107_2452
*1337 FILLER_0_107_2516
*1338 FILLER_0_107_2522
*1339 FILLER_0_107_2586
*1340 FILLER_0_107_2592
*1341 FILLER_0_107_2656
*1342 FILLER_0_107_2662
*1343 FILLER_0_107_2726
*1344 FILLER_0_107_2732
*1345 FILLER_0_107_276
*1346 FILLER_0_107_2796
*1347 FILLER_0_107_2802
*1348 FILLER_0_107_282
*1349 FILLER_0_107_2866
*1350 FILLER_0_107_2872