*SPEF "ieee 1481-1999"
*DESIGN "user_proj_example"
*DATE "11:11:11 Fri 11 11, 1111"
*VENDOR "OpenRCX"
*PROGRAM "Parallel Extraction"
*VERSION "1.0"
*DESIGN_FLOW "NAME_SCOPE LOCAL" "PIN_CAP NONE"
*DIVIDER /
*DELIMITER :
*BUS_DELIMITER []
*T_UNIT 1 NS
*C_UNIT 1 PF
*R_UNIT 1 OHM
*L_UNIT 1 HENRY

*NAME_MAP
*1 io_in[0]
*2 io_in[10]
*3 io_in[11]
*4 io_in[12]
*5 io_in[13]
*6 io_in[14]
*7 io_in[15]
*8 io_in[1]
*9 io_in[2]
*10 io_in[3]
*11 io_in[4]
*12 io_in[5]
*13 io_in[6]
*14 io_in[7]
*15 io_in[8]
*16 io_in[9]
*17 net13
*18 net23
*19 net24
*20 net25
*21 net26
*22 net27
*23 net28
*24 net14
*25 net15
*26 net16
*27 net17
*28 net18
*29 net19
*30 net20
*31 net21
*32 net22
*33 net29
*34 net8
*35 net9
*36 net35
*37 net10
*38 net11
*39 net12
*40 net30
*41 net31
*42 net32
*43 net4
*44 net5
*45 net33
*46 net6
*47 net34
*48 net7
*49 net1
*50 net2
*51 net3
*54 wb_clk_i
*55 wb_rst_i
*56 FILLER_0_0_1022
*57 FILLER_0_0_104
*58 FILLER_0_0_1056
*59 FILLER_0_0_1090
*60 FILLER_0_0_1124
*61 FILLER_0_0_1158
*62 FILLER_0_0_1192
*63 FILLER_0_0_1226
*64 FILLER_0_0_1260
*65 FILLER_0_0_1294
*66 FILLER_0_0_1328
*67 FILLER_0_0_1362
*68 FILLER_0_0_138
*69 FILLER_0_0_1396
*70 FILLER_0_0_1430
*71 FILLER_0_0_1464
*72 FILLER_0_0_1498
*73 FILLER_0_0_1532
*74 FILLER_0_0_1566
*75 FILLER_0_0_1600
*76 FILLER_0_0_1634
*77 FILLER_0_0_1668
*78 FILLER_0_0_1702
*79 FILLER_0_0_172
*80 FILLER_0_0_1736
*81 FILLER_0_0_1770
*82 FILLER_0_0_1804
*83 FILLER_0_0_1838
*84 FILLER_0_0_1872
*85 FILLER_0_0_1906
*86 FILLER_0_0_1940
*87 FILLER_0_0_1974
*88 FILLER_0_0_2
*89 FILLER_0_0_2008
*90 FILLER_0_0_2042
*91 FILLER_0_0_206
*92 FILLER_0_0_2076
*93 FILLER_0_0_2110
*94 FILLER_0_0_2144
*95 FILLER_0_0_2178
*96 FILLER_0_0_2212
*97 FILLER_0_0_2246
*98 FILLER_0_0_2280
*99 FILLER_0_0_2314
*100 FILLER_0_0_2348
*101 FILLER_0_0_2382
*102 FILLER_0_0_240
*103 FILLER_0_0_2416
*104 FILLER_0_0_2450
*105 FILLER_0_0_2484
*106 FILLER_0_0_2486
*107 FILLER_0_0_2491
*108 FILLER_0_0_2507
*109 FILLER_0_0_2515
*110 FILLER_0_0_2518
*111 FILLER_0_0_2552
*112 FILLER_0_0_2586
*113 FILLER_0_0_2620
*114 FILLER_0_0_2654
*115 FILLER_0_0_2688
*116 FILLER_0_0_2722
*117 FILLER_0_0_274
*118 FILLER_0_0_2756
*119 FILLER_0_0_2790
*120 FILLER_0_0_2824
*121 FILLER_0_0_2858
*122 FILLER_0_0_2892
*123 FILLER_0_0_2926
*124 FILLER_0_0_2960
*125 FILLER_0_0_2994
*126 FILLER_0_0_3028
*127 FILLER_0_0_3062
*128 FILLER_0_0_308
*129 FILLER_0_0_3096
*130 FILLER_0_0_3130
*131 FILLER_0_0_3164
*132 FILLER_0_0_3198
*133 FILLER_0_0_3232
*134 FILLER_0_0_3266
*135 FILLER_0_0_3300
*136 FILLER_0_0_3334
*137 FILLER_0_0_3368
*138 FILLER_0_0_3402
*139 FILLER_0_0_342
*140 FILLER_0_0_3436
*141 FILLER_0_0_3470
*142 FILLER_0_0_3486
*143 FILLER_0_0_3491
*144 FILLER_0_0_3499
*145 FILLER_0_0_3501
*146 FILLER_0_0_3504
*147 FILLER_0_0_3538
*148 FILLER_0_0_3572
*149 FILLER_0_0_36
*150 FILLER_0_0_3606
*151 FILLER_0_0_3640
*152 FILLER_0_0_3674
*153 FILLER_0_0_3708
*154 FILLER_0_0_3742
*155 FILLER_0_0_376
*156 FILLER_0_0_3776
*157 FILLER_0_0_3810
*158 FILLER_0_0_3844
*159 FILLER_0_0_3878
*160 FILLER_0_0_3912
*161 FILLER_0_0_3946
*162 FILLER_0_0_3980
*163 FILLER_0_0_4014
*164 FILLER_0_0_4048
*165 FILLER_0_0_4082
*166 FILLER_0_0_410
*167 FILLER_0_0_4116
*168 FILLER_0_0_4150
*169 FILLER_0_0_4184
*170 FILLER_0_0_4218
*171 FILLER_0_0_4252
*172 FILLER_0_0_4286
*173 FILLER_0_0_4320
*174 FILLER_0_0_4354
*175 FILLER_0_0_4388
*176 FILLER_0_0_4422
*177 FILLER_0_0_444
*178 FILLER_0_0_4456
*179 FILLER_0_0_4494
*180 FILLER_0_0_4510
*181 FILLER_0_0_4518
*182 FILLER_0_0_4524
*183 FILLER_0_0_4558
*184 FILLER_0_0_4592
*185 FILLER_0_0_4626
*186 FILLER_0_0_4660
*187 FILLER_0_0_4694
*188 FILLER_0_0_4728
*189 FILLER_0_0_4762
*190 FILLER_0_0_478
*191 FILLER_0_0_4796
*192 FILLER_0_0_4830
*193 FILLER_0_0_4864
*194 FILLER_0_0_4898
*195 FILLER_0_0_4932
*196 FILLER_0_0_4966
*197 FILLER_0_0_512
*198 FILLER_0_0_546
*199 FILLER_0_0_580
*200 FILLER_0_0_614
*201 FILLER_0_0_648
*202 FILLER_0_0_682
*203 FILLER_0_0_70
*204 FILLER_0_0_716
*205 FILLER_0_0_750
*206 FILLER_0_0_784
*207 FILLER_0_0_818
*208 FILLER_0_0_852
*209 FILLER_0_0_886
*210 FILLER_0_0_920
*211 FILLER_0_0_954
*212 FILLER_0_0_988
*213 FILLER_0_100_101
*214 FILLER_0_100_1011
*215 FILLER_0_100_1017
*216 FILLER_0_100_107
*217 FILLER_0_100_1081
*218 FILLER_0_100_1087
*219 FILLER_0_100_1151
*220 FILLER_0_100_1157
*221 FILLER_0_100_1221
*222 FILLER_0_100_1227
*223 FILLER_0_100_1291
*224 FILLER_0_100_1297
*225 FILLER_0_100_1361
*226 FILLER_0_100_1367
*227 FILLER_0_100_1431
*228 FILLER_0_100_1437
*229 FILLER_0_100_1501
*230 FILLER_0_100_1507
*231 FILLER_0_100_1571
*232 FILLER_0_100_1577
*233 FILLER_0_100_1641
*234 FILLER_0_100_1647
*235 FILLER_0_100_171
*236 FILLER_0_100_1711
*237 FILLER_0_100_1717
*238 FILLER_0_100_177
*239 FILLER_0_100_1781
*240 FILLER_0_100_1787
*241 FILLER_0_100_1851
*242 FILLER_0_100_1857
*243 FILLER_0_100_1921
*244 FILLER_0_100_1927
*245 FILLER_0_100_1991
*246 FILLER_0_100_1997
*247 FILLER_0_100_2
*248 FILLER_0_100_2061
*249 FILLER_0_100_2067
*250 FILLER_0_100_2131
*251 FILLER_0_100_2137
*252 FILLER_0_100_2201
*253 FILLER_0_100_2207
*254 FILLER_0_100_2271
*255 FILLER_0_100_2277
*256 FILLER_0_100_2341
*257 FILLER_0_100_2347
*258 FILLER_0_100_241
*259 FILLER_0_100_2411
*260 FILLER_0_100_2417
*261 FILLER_0_100_247
*262 FILLER_0_100_2481
*263 FILLER_0_100_2487
*264 FILLER_0_100_2551
*265 FILLER_0_100_2557
*266 FILLER_0_100_2621
*267 FILLER_0_100_2627
*268 FILLER_0_100_2691
*269 FILLER_0_100_2697
*270 FILLER_0_100_2761
*271 FILLER_0_100_2767
*272 FILLER_0_100_2831
*273 FILLER_0_100_2837
*274 FILLER_0_100_2901
*275 FILLER_0_100_2907
*276 FILLER_0_100_2971
*277 FILLER_0_100_2977
*278 FILLER_0_100_3041
*279 FILLER_0_100_3047
*280 FILLER_0_100_311
*281 FILLER_0_100_3111
*282 FILLER_0_100_3117
*283 FILLER_0_100_317
*284 FILLER_0_100_3181
*285 FILLER_0_100_3187
*286 FILLER_0_100_3251
*287 FILLER_0_100_3257
*288 FILLER_0_100_3321
*289 FILLER_0_100_3327
*290 FILLER_0_100_3391
*291 FILLER_0_100_3397
*292 FILLER_0_100_34
*293 FILLER_0_100_3461
*294 FILLER_0_100_3467
*295 FILLER_0_100_3531
*296 FILLER_0_100_3537
*297 FILLER_0_100_3601
*298 FILLER_0_100_3607
*299 FILLER_0_100_3671
*300 FILLER_0_100_3677
*301 FILLER_0_100_37
*302 FILLER_0_100_3741
*303 FILLER_0_100_3747
*304 FILLER_0_100_381
*305 FILLER_0_100_3811
*306 FILLER_0_100_3817
*307 FILLER_0_100_387
*308 FILLER_0_100_3881
*309 FILLER_0_100_3887
*310 FILLER_0_100_3951
*311 FILLER_0_100_3957
*312 FILLER_0_100_4021
*313 FILLER_0_100_4027
*314 FILLER_0_100_4091
*315 FILLER_0_100_4097
*316 FILLER_0_100_4161
*317 FILLER_0_100_4167
*318 FILLER_0_100_4231
*319 FILLER_0_100_4237
*320 FILLER_0_100_4301
*321 FILLER_0_100_4307
*322 FILLER_0_100_4371
*323 FILLER_0_100_4377
*324 FILLER_0_100_4441
*325 FILLER_0_100_4447
*326 FILLER_0_100_451
*327 FILLER_0_100_4511
*328 FILLER_0_100_4517
*329 FILLER_0_100_457
*330 FILLER_0_100_4581
*331 FILLER_0_100_4587
*332 FILLER_0_100_4651
*333 FILLER_0_100_4657
*334 FILLER_0_100_4721
*335 FILLER_0_100_4727
*336 FILLER_0_100_4791
*337 FILLER_0_100_4797
*338 FILLER_0_100_4861
*339 FILLER_0_100_4867
*340 FILLER_0_100_4931
*341 FILLER_0_100_4937
*342 FILLER_0_100_4969
*343 FILLER_0_100_521
*344 FILLER_0_100_527
*345 FILLER_0_100_591
*346 FILLER_0_100_597
*347 FILLER_0_100_661
*348 FILLER_0_100_667
*349 FILLER_0_100_731
*350 FILLER_0_100_737
*351 FILLER_0_100_801
*352 FILLER_0_100_807
*353 FILLER_0_100_871
*354 FILLER_0_100_877
*355 FILLER_0_100_941
*356 FILLER_0_100_947
*357 FILLER_0_101_1046
*358 FILLER_0_101_1052
*359 FILLER_0_101_1116
*360 FILLER_0_101_1122
*361 FILLER_0_101_1186
*362 FILLER_0_101_1192
*363 FILLER_0_101_1256
*364 FILLER_0_101_1262
*365 FILLER_0_101_1326
*366 FILLER_0_101_1332
*367 FILLER_0_101_136
*368 FILLER_0_101_1396
*369 FILLER_0_101_1402
*370 FILLER_0_101_142
*371 FILLER_0_101_1466
*372 FILLER_0_101_1472
*373 FILLER_0_101_1536
*374 FILLER_0_101_1542
*375 FILLER_0_101_1606
*376 FILLER_0_101_1612
*377 FILLER_0_101_1676
*378 FILLER_0_101_1682
*379 FILLER_0_101_1746
*380 FILLER_0_101_1752
*381 FILLER_0_101_1816
*382 FILLER_0_101_1822
*383 FILLER_0_101_1886
*384 FILLER_0_101_1892
*385 FILLER_0_101_1956
*386 FILLER_0_101_1962
*387 FILLER_0_101_2
*388 FILLER_0_101_2026
*389 FILLER_0_101_2032
*390 FILLER_0_101_206
*391 FILLER_0_101_2096
*392 FILLER_0_101_2102
*393 FILLER_0_101_212
*394 FILLER_0_101_2166
*395 FILLER_0_101_2172
*396 FILLER_0_101_2236
*397 FILLER_0_101_2242
*398 FILLER_0_101_2306
*399 FILLER_0_101_2312
*400 FILLER_0_101_2376
*401 FILLER_0_101_2382
*402 FILLER_0_101_2446
*403 FILLER_0_101_2452
*404 FILLER_0_101_2516
*405 FILLER_0_101_2522
*406 FILLER_0_101_2586
*407 FILLER_0_101_2592
*408 FILLER_0_101_2656
*409 FILLER_0_101_2662
*410 FILLER_0_101_2726
*411 FILLER_0_101_2732
*412 FILLER_0_101_276
*413 FILLER_0_101_2796
*414 FILLER_0_101_2802
*415 FILLER_0_101_282
*416 FILLER_0_101_2866
*417 FILLER_0_101_2872
*418 FILLER_0_101_2936
*419 FILLER_0_101_2942
*420 FILLER_0_101_3006
*421 FILLER_0_101_3012
*422 FILLER_0_101_3076
*423 FILLER_0_101_3082
*424 FILLER_0_101_3146
*425 FILLER_0_101_3152
*426 FILLER_0_101_3216
*427 FILLER_0_101_3222
*428 FILLER_0_101_3286
*429 FILLER_0_101_3292
*430 FILLER_0_101_3356
*431 FILLER_0_101_3362
*432 FILLER_0_101_3426
*433 FILLER_0_101_3432
*434 FILLER_0_101_346
*435 FILLER_0_101_3496
*436 FILLER_0_101_3502
*437 FILLER_0_101_352
*438 FILLER_0_101_3566
*439 FILLER_0_101_3572
*440 FILLER_0_101_3636
*441 FILLER_0_101_3642
*442 FILLER_0_101_3706
*443 FILLER_0_101_3712
*444 FILLER_0_101_3776
*445 FILLER_0_101_3782
*446 FILLER_0_101_3846
*447 FILLER_0_101_3852
*448 FILLER_0_101_3916
*449 FILLER_0_101_3922
*450 FILLER_0_101_3986
*451 FILLER_0_101_3992
*452 FILLER_0_101_4056
*453 FILLER_0_101_4062
*454 FILLER_0_101_4126
*455 FILLER_0_101_4132
*456 FILLER_0_101_416
*457 FILLER_0_101_4196
*458 FILLER_0_101_4202
*459 FILLER_0_101_422
*460 FILLER_0_101_4266
*461 FILLER_0_101_4272
*462 FILLER_0_101_4336
*463 FILLER_0_101_4342
*464 FILLER_0_101_4406
*465 FILLER_0_101_4412
*466 FILLER_0_101_4476
*467 FILLER_0_101_4482
*468 FILLER_0_101_4546
*469 FILLER_0_101_4552
*470 FILLER_0_101_4616
*471 FILLER_0_101_4622
*472 FILLER_0_101_4686
*473 FILLER_0_101_4692
*474 FILLER_0_101_4756
*475 FILLER_0_101_4762
*476 FILLER_0_101_4826
*477 FILLER_0_101_4832
*478 FILLER_0_101_486
*479 FILLER_0_101_4896
*480 FILLER_0_101_4902
*481 FILLER_0_101_492
*482 FILLER_0_101_4966
*483 FILLER_0_101_4972
*484 FILLER_0_101_556
*485 FILLER_0_101_562
*486 FILLER_0_101_626
*487 FILLER_0_101_632
*488 FILLER_0_101_66
*489 FILLER_0_101_696
*490 FILLER_0_101_702
*491 FILLER_0_101_72
*492 FILLER_0_101_766
*493 FILLER_0_101_772
*494 FILLER_0_101_836
*495 FILLER_0_101_842
*496 FILLER_0_101_906
*497 FILLER_0_101_912
*498 FILLER_0_101_976
*499 FILLER_0_101_982
*500 FILLER_0_102_101
*501 FILLER_0_102_1011
*502 FILLER_0_102_1017
*503 FILLER_0_102_107
*504 FILLER_0_102_1081
*505 FILLER_0_102_1087
*506 FILLER_0_102_1151
*507 FILLER_0_102_1157
*508 FILLER_0_102_1221
*509 FILLER_0_102_1227
*510 FILLER_0_102_1291
*511 FILLER_0_102_1297
*512 FILLER_0_102_1361
*513 FILLER_0_102_1367
*514 FILLER_0_102_1431
*515 FILLER_0_102_1437
*516 FILLER_0_102_1501
*517 FILLER_0_102_1507
*518 FILLER_0_102_1571
*519 FILLER_0_102_1577
*520 FILLER_0_102_1641
*521 FILLER_0_102_1647
*522 FILLER_0_102_171
*523 FILLER_0_102_1711
*524 FILLER_0_102_1717
*525 FILLER_0_102_177
*526 FILLER_0_102_1781
*527 FILLER_0_102_1787
*528 FILLER_0_102_1851
*529 FILLER_0_102_1857
*530 FILLER_0_102_1921
*531 FILLER_0_102_1927
*532 FILLER_0_102_1991
*533 FILLER_0_102_1997
*534 FILLER_0_102_2
*535 FILLER_0_102_2061
*536 FILLER_0_102_2067
*537 FILLER_0_102_2131
*538 FILLER_0_102_2137
*539 FILLER_0_102_2201
*540 FILLER_0_102_2207
*541 FILLER_0_102_2271
*542 FILLER_0_102_2277
*543 FILLER_0_102_2341
*544 FILLER_0_102_2347
*545 FILLER_0_102_241
*546 FILLER_0_102_2411
*547 FILLER_0_102_2417
*548 FILLER_0_102_247
*549 FILLER_0_102_2481
*550 FILLER_0_102_2487
*551 FILLER_0_102_2551
*552 FILLER_0_102_2557
*553 FILLER_0_102_2621
*554 FILLER_0_102_2627
*555 FILLER_0_102_2691
*556 FILLER_0_102_2697
*557 FILLER_0_102_2761
*558 FILLER_0_102_2767
*559 FILLER_0_102_2831
*560 FILLER_0_102_2837
*561 FILLER_0_102_2901
*562 FILLER_0_102_2907
*563 FILLER_0_102_2971
*564 FILLER_0_102_2977
*565 FILLER_0_102_3041
*566 FILLER_0_102_3047
*567 FILLER_0_102_311
*568 FILLER_0_102_3111
*569 FILLER_0_102_3117
*570 FILLER_0_102_317
*571 FILLER_0_102_3181
*572 FILLER_0_102_3187
*573 FILLER_0_102_3251
*574 FILLER_0_102_3257
*575 FILLER_0_102_3321
*576 FILLER_0_102_3327
*577 FILLER_0_102_3391
*578 FILLER_0_102_3397
*579 FILLER_0_102_34
*580 FILLER_0_102_3461
*581 FILLER_0_102_3467
*582 FILLER_0_102_3531
*583 FILLER_0_102_3537
*584 FILLER_0_102_3601
*585 FILLER_0_102_3607
*586 FILLER_0_102_3671
*587 FILLER_0_102_3677
*588 FILLER_0_102_37
*589 FILLER_0_102_3741
*590 FILLER_0_102_3747
*591 FILLER_0_102_381
*592 FILLER_0_102_3811
*593 FILLER_0_102_3817
*594 FILLER_0_102_387
*595 FILLER_0_102_3881
*596 FILLER_0_102_3887
*597 FILLER_0_102_3951
*598 FILLER_0_102_3957
*599 FILLER_0_102_4021
*600 FILLER_0_102_4027
*601 FILLER_0_102_4091
*602 FILLER_0_102_4097
*603 FILLER_0_102_4161
*604 FILLER_0_102_4167
*605 FILLER_0_102_4231
*606 FILLER_0_102_4237
*607 FILLER_0_102_4301
*608 FILLER_0_102_4307
*609 FILLER_0_102_4371
*610 FILLER_0_102_4377
*611 FILLER_0_102_4441
*612 FILLER_0_102_4447
*613 FILLER_0_102_451
*614 FILLER_0_102_4511
*615 FILLER_0_102_4517
*616 FILLER_0_102_457
*617 FILLER_0_102_4581
*618 FILLER_0_102_4587
*619 FILLER_0_102_4651
*620 FILLER_0_102_4657
*621 FILLER_0_102_4721
*622 FILLER_0_102_4727
*623 FILLER_0_102_4791
*624 FILLER_0_102_4797
*625 FILLER_0_102_4861
*626 FILLER_0_102_4867
*627 FILLER_0_102_4931
*628 FILLER_0_102_4937
*629 FILLER_0_102_4969
*630 FILLER_0_102_4973
*631 FILLER_0_102_521
*632 FILLER_0_102_527
*633 FILLER_0_102_591
*634 FILLER_0_102_597
*635 FILLER_0_102_661
*636 FILLER_0_102_667
*637 FILLER_0_102_731
*638 FILLER_0_102_737
*639 FILLER_0_102_801
*640 FILLER_0_102_807
*641 FILLER_0_102_871
*642 FILLER_0_102_877
*643 FILLER_0_102_941
*644 FILLER_0_102_947
*645 FILLER_0_103_1046
*646 FILLER_0_103_1052
*647 FILLER_0_103_1116
*648 FILLER_0_103_1122
*649 FILLER_0_103_1186
*650 FILLER_0_103_1192
*651 FILLER_0_103_1256
*652 FILLER_0_103_1262
*653 FILLER_0_103_1326
*654 FILLER_0_103_1332
*655 FILLER_0_103_136
*656 FILLER_0_103_1396
*657 FILLER_0_103_1402
*658 FILLER_0_103_142
*659 FILLER_0_103_1466
*660 FILLER_0_103_1472
*661 FILLER_0_103_1536
*662 FILLER_0_103_1542
*663 FILLER_0_103_1606
*664 FILLER_0_103_1612
*665 FILLER_0_103_1676
*666 FILLER_0_103_1682
*667 FILLER_0_103_1746
*668 FILLER_0_103_1752
*669 FILLER_0_103_1816
*670 FILLER_0_103_1822
*671 FILLER_0_103_1886
*672 FILLER_0_103_1892
*673 FILLER_0_103_1956
*674 FILLER_0_103_1962
*675 FILLER_0_103_2
*676 FILLER_0_103_2026
*677 FILLER_0_103_2032
*678 FILLER_0_103_206
*679 FILLER_0_103_2096
*680 FILLER_0_103_2102
*681 FILLER_0_103_212
*682 FILLER_0_103_2166
*683 FILLER_0_103_2172
*684 FILLER_0_103_2236
*685 FILLER_0_103_2242
*686 FILLER_0_103_2306
*687 FILLER_0_103_2312
*688 FILLER_0_103_2376
*689 FILLER_0_103_2382
*690 FILLER_0_103_2446
*691 FILLER_0_103_2452
*692 FILLER_0_103_2516
*693 FILLER_0_103_2522
*694 FILLER_0_103_2586
*695 FILLER_0_103_2592
*696 FILLER_0_103_2656
*697 FILLER_0_103_2662
*698 FILLER_0_103_2726
*699 FILLER_0_103_2732
*700 FILLER_0_103_276
*701 FILLER_0_103_2796
*702 FILLER_0_103_2802
*703 FILLER_0_103_282
*704 FILLER_0_103_2866
*705 FILLER_0_103_2872
*706 FILLER_0_103_2936
*707 FILLER_0_103_2942
*708 FILLER_0_103_3006
*709 FILLER_0_103_3012
*710 FILLER_0_103_3076
*711 FILLER_0_103_3082
*712 FILLER_0_103_3146
*713 FILLER_0_103_3152
*714 FILLER_0_103_3216
*715 FILLER_0_103_3222
*716 FILLER_0_103_3286
*717 FILLER_0_103_3292
*718 FILLER_0_103_3356
*719 FILLER_0_103_3362
*720 FILLER_0_103_3426
*721 FILLER_0_103_3432
*722 FILLER_0_103_346
*723 FILLER_0_103_3496
*724 FILLER_0_103_3502
*725 FILLER_0_103_352
*726 FILLER_0_103_3566
*727 FILLER_0_103_3572
*728 FILLER_0_103_3636
*729 FILLER_0_103_3642
*730 FILLER_0_103_3706
*731 FILLER_0_103_3712
*732 FILLER_0_103_3776
*733 FILLER_0_103_3782
*734 FILLER_0_103_3846
*735 FILLER_0_103_3852
*736 FILLER_0_103_3916
*737 FILLER_0_103_3922
*738 FILLER_0_103_3986
*739 FILLER_0_103_3992
*740 FILLER_0_103_4056
*741 FILLER_0_103_4062
*742 FILLER_0_103_4126
*743 FILLER_0_103_4132
*744 FILLER_0_103_416
*745 FILLER_0_103_4196
*746 FILLER_0_103_4202
*747 FILLER_0_103_422
*748 FILLER_0_103_4266
*749 FILLER_0_103_4272
*750 FILLER_0_103_4336
*751 FILLER_0_103_4342
*752 FILLER_0_103_4406
*753 FILLER_0_103_4412
*754 FILLER_0_103_4476
*755 FILLER_0_103_4482
*756 FILLER_0_103_4546
*757 FILLER_0_103_4552
*758 FILLER_0_103_4616
*759 FILLER_0_103_4622
*760 FILLER_0_103_4686
*761 FILLER_0_103_4692
*762 FILLER_0_103_4756
*763 FILLER_0_103_4762
*764 FILLER_0_103_4826
*765 FILLER_0_103_4832
*766 FILLER_0_103_486
*767 FILLER_0_103_4896
*768 FILLER_0_103_4902
*769 FILLER_0_103_492
*770 FILLER_0_103_4966
*771 FILLER_0_103_4972
*772 FILLER_0_103_556
*773 FILLER_0_103_562
*774 FILLER_0_103_626
*775 FILLER_0_103_632
*776 FILLER_0_103_66
*777 FILLER_0_103_696
*778 FILLER_0_103_702
*779 FILLER_0_103_72
*780 FILLER_0_103_766
*781 FILLER_0_103_772
*782 FILLER_0_103_836
*783 FILLER_0_103_842
*784 FILLER_0_103_906
*785 FILLER_0_103_912
*786 FILLER_0_103_976
*787 FILLER_0_103_982
*788 FILLER_0_104_101
*789 FILLER_0_104_1011
*790 FILLER_0_104_1017
*791 FILLER_0_104_107
*792 FILLER_0_104_1081
*793 FILLER_0_104_1087
*794 FILLER_0_104_1151
*795 FILLER_0_104_1157
*796 FILLER_0_104_1221
*797 FILLER_0_104_1227
*798 FILLER_0_104_1291
*799 FILLER_0_104_1297
*800 FILLER_0_104_1361
*801 FILLER_0_104_1367
*802 FILLER_0_104_1431
*803 FILLER_0_104_1437
*804 FILLER_0_104_1501
*805 FILLER_0_104_1507
*806 FILLER_0_104_1571
*807 FILLER_0_104_1577
*808 FILLER_0_104_1641
*809 FILLER_0_104_1647
*810 FILLER_0_104_171
*811 FILLER_0_104_1711
*812 FILLER_0_104_1717
*813 FILLER_0_104_177
*814 FILLER_0_104_1781
*815 FILLER_0_104_1787
*816 FILLER_0_104_1851
*817 FILLER_0_104_1857
*818 FILLER_0_104_1921
*819 FILLER_0_104_1927
*820 FILLER_0_104_1991
*821 FILLER_0_104_1997
*822 FILLER_0_104_2
*823 FILLER_0_104_2061
*824 FILLER_0_104_2067
*825 FILLER_0_104_2131
*826 FILLER_0_104_2137
*827 FILLER_0_104_2201
*828 FILLER_0_104_2207
*829 FILLER_0_104_2271
*830 FILLER_0_104_2277
*831 FILLER_0_104_2341
*832 FILLER_0_104_2347
*833 FILLER_0_104_241
*834 FILLER_0_104_2411
*835 FILLER_0_104_2417
*836 FILLER_0_104_247
*837 FILLER_0_104_2481
*838 FILLER_0_104_2487
*839 FILLER_0_104_2551
*840 FILLER_0_104_2557
*841 FILLER_0_104_2621
*842 FILLER_0_104_2627
*843 FILLER_0_104_2691
*844 FILLER_0_104_2697
*845 FILLER_0_104_2761
*846 FILLER_0_104_2767
*847 FILLER_0_104_2831
*848 FILLER_0_104_2837
*849 FILLER_0_104_2901
*850 FILLER_0_104_2907
*851 FILLER_0_104_2971
*852 FILLER_0_104_2977
*853 FILLER_0_104_3041
*854 FILLER_0_104_3047
*855 FILLER_0_104_311
*856 FILLER_0_104_3111
*857 FILLER_0_104_3117
*858 FILLER_0_104_317
*859 FILLER_0_104_3181
*860 FILLER_0_104_3187
*861 FILLER_0_104_3251
*862 FILLER_0_104_3257
*863 FILLER_0_104_3321
*864 FILLER_0_104_3327
*865 FILLER_0_104_3391
*866 FILLER_0_104_3397
*867 FILLER_0_104_34
*868 FILLER_0_104_3461
*869 FILLER_0_104_3467
*870 FILLER_0_104_3531
*871 FILLER_0_104_3537
*872 FILLER_0_104_3601
*873 FILLER_0_104_3607
*874 FILLER_0_104_3671
*875 FILLER_0_104_3677
*876 FILLER_0_104_37
*877 FILLER_0_104_3741
*878 FILLER_0_104_3747
*879 FILLER_0_104_381
*880 FILLER_0_104_3811
*881 FILLER_0_104_3817
*882 FILLER_0_104_387
*883 FILLER_0_104_3881
*884 FILLER_0_104_3887
*885 FILLER_0_104_3951
*886 FILLER_0_104_3957
*887 FILLER_0_104_4021
*888 FILLER_0_104_4027
*889 FILLER_0_104_4091
*890 FILLER_0_104_4097
*891 FILLER_0_104_4161
*892 FILLER_0_104_4167
*893 FILLER_0_104_4231
*894 FILLER_0_104_4237
*895 FILLER_0_104_4301
*896 FILLER_0_104_4307
*897 FILLER_0_104_4371
*898 FILLER_0_104_4377
*899 FILLER_0_104_4441
*900 FILLER_0_104_4447
*901 FILLER_0_104_451
*902 FILLER_0_104_4511
*903 FILLER_0_104_4517
*904 FILLER_0_104_457
*905 FILLER_0_104_4581
*906 FILLER_0_104_4587
*907 FILLER_0_104_4651
*908 FILLER_0_104_4657
*909 FILLER_0_104_4721
*910 FILLER_0_104_4727
*911 FILLER_0_104_4791
*912 FILLER_0_104_4797
*913 FILLER_0_104_4861
*914 FILLER_0_104_4867
*915 FILLER_0_104_4931
*916 FILLER_0_104_4937
*917 FILLER_0_104_4969
*918 FILLER_0_104_4973
*919 FILLER_0_104_521
*920 FILLER_0_104_527
*921 FILLER_0_104_591
*922 FILLER_0_104_597
*923 FILLER_0_104_661
*924 FILLER_0_104_667
*925 FILLER_0_104_731
*926 FILLER_0_104_737
*927 FILLER_0_104_801
*928 FILLER_0_104_807
*929 FILLER_0_104_871
*930 FILLER_0_104_877
*931 FILLER_0_104_941
*932 FILLER_0_104_947
*933 FILLER_0_105_1046
*934 FILLER_0_105_1052
*935 FILLER_0_105_1116
*936 FILLER_0_105_1122
*937 FILLER_0_105_1186
*938 FILLER_0_105_1192
*939 FILLER_0_105_1256
*940 FILLER_0_105_1262
*941 FILLER_0_105_1326
*942 FILLER_0_105_1332
*943 FILLER_0_105_136
*944 FILLER_0_105_1396
*945 FILLER_0_105_1402
*946 FILLER_0_105_142
*947 FILLER_0_105_1466
*948 FILLER_0_105_1472
*949 FILLER_0_105_1536
*950 FILLER_0_105_1542
*951 FILLER_0_105_1606
*952 FILLER_0_105_1612
*953 FILLER_0_105_1676
*954 FILLER_0_105_1682
*955 FILLER_0_105_1746
*956 FILLER_0_105_1752
*957 FILLER_0_105_1816
*958 FILLER_0_105_1822
*959 FILLER_0_105_1886
*960 FILLER_0_105_1892
*961 FILLER_0_105_1956
*962 FILLER_0_105_1962
*963 FILLER_0_105_2
*964 FILLER_0_105_2026
*965 FILLER_0_105_2032
*966 FILLER_0_105_206
*967 FILLER_0_105_2096
*968 FILLER_0_105_2102
*969 FILLER_0_105_212
*970 FILLER_0_105_2166
*971 FILLER_0_105_2172
*972 FILLER_0_105_2236
*973 FILLER_0_105_2242
*974 FILLER_0_105_2306
*975 FILLER_0_105_2312
*976 FILLER_0_105_2376
*977 FILLER_0_105_2382
*978 FILLER_0_105_2446
*979 FILLER_0_105_2452
*980 FILLER_0_105_2516
*981 FILLER_0_105_2522
*982 FILLER_0_105_2586
*983 FILLER_0_105_2592
*984 FILLER_0_105_2656
*985 FILLER_0_105_2662
*986 FILLER_0_105_2726
*987 FILLER_0_105_2732
*988 FILLER_0_105_276
*989 FILLER_0_105_2796
*990 FILLER_0_105_2802
*991 FILLER_0_105_282
*992 FILLER_0_105_2866
*993 FILLER_0_105_2872
*994 FILLER_0_105_2936
*995 FILLER_0_105_2942
*996 FILLER_0_105_3006
*997 FILLER_0_105_3012
*998 FILLER_0_105_3076
*999 FILLER_0_105_3082
*1000 FILLER_0_105_3146
*1001 FILLER_0_105_3152
*1002 FILLER_0_105_3216
*1003 FILLER_0_105_3222
*1004 FILLER_0_105_3286
*1005 FILLER_0_105_3292
*1006 FILLER_0_105_3356
*1007 FILLER_0_105_3362
*1008 FILLER_0_105_3426
*1009 FILLER_0_105_3432
*1010 FILLER_0_105_346
*1011 FILLER_0_105_3496
*1012 FILLER_0_105_3502
*1013 FILLER_0_105_352
*1014 FILLER_0_105_3566
*1015 FILLER_0_105_3572
*1016 FILLER_0_105_3636
*1017 FILLER_0_105_3642
*1018 FILLER_0_105_3706
*1019 FILLER_0_105_3712
*1020 FILLER_0_105_3776
*1021 FILLER_0_105_3782
*1022 FILLER_0_105_3846
*1023 FILLER_0_105_3852
*1024 FILLER_0_105_3916
*1025 FILLER_0_105_3922
*1026 FILLER_0_105_3986
*1027 FILLER_0_105_3992
*1028 FILLER_0_105_4056
*1029 FILLER_0_105_4062
*1030 FILLER_0_105_4126
*1031 FILLER_0_105_4132
*1032 FILLER_0_105_416
*1033 FILLER_0_105_4196
*1034 FILLER_0_105_4202
*1035 FILLER_0_105_422
*1036 FILLER_0_105_4266
*1037 FILLER_0_105_4272
*1038 FILLER_0_105_4336
*1039 FILLER_0_105_4342
*1040 FILLER_0_105_4406
*1041 FILLER_0_105_4412
*1042 FILLER_0_105_4476
*1043 FILLER_0_105_4482
*1044 FILLER_0_105_4546
*1045 FILLER_0_105_4552
*1046 FILLER_0_105_4616
*1047 FILLER_0_105_4622
*1048 FILLER_0_105_4686
*1049 FILLER_0_105_4692
*1050 FILLER_0_105_4756
*1051 FILLER_0_105_4762
*1052 FILLER_0_105_4826
*1053 FILLER_0_105_4832
*1054 FILLER_0_105_486
*1055 FILLER_0_105_4896
*1056 FILLER_0_105_4902
*1057 FILLER_0_105_492
*1058 FILLER_0_105_4966
*1059 FILLER_0_105_4972
*1060 FILLER_0_105_556
*1061 FILLER_0_105_562
*1062 FILLER_0_105_626
*1063 FILLER_0_105_632
*1064 FILLER_0_105_66
*1065 FILLER_0_105_696
*1066 FILLER_0_105_702
*1067 FILLER_0_105_72
*1068 FILLER_0_105_766
*1069 FILLER_0_105_772
*1070 FILLER_0_105_836
*1071 FILLER_0_105_842
*1072 FILLER_0_105_906
*1073 FILLER_0_105_912
*1074 FILLER_0_105_976
*1075 FILLER_0_105_982
*1076 FILLER_0_106_101
*1077 FILLER_0_106_1011
*1078 FILLER_0_106_1017
*1079 FILLER_0_106_107
*1080 FILLER_0_106_1081
*1081 FILLER_0_106_1087
*1082 FILLER_0_106_1151
*1083 FILLER_0_106_1157
*1084 FILLER_0_106_1221
*1085 FILLER_0_106_1227
*1086 FILLER_0_106_1291
*1087 FILLER_0_106_1297
*1088 FILLER_0_106_1361
*1089 FILLER_0_106_1367
*1090 FILLER_0_106_1431
*1091 FILLER_0_106_1437
*1092 FILLER_0_106_1501
*1093 FILLER_0_106_1507
*1094 FILLER_0_106_1571
*1095 FILLER_0_106_1577
*1096 FILLER_0_106_1641
*1097 FILLER_0_106_1647
*1098 FILLER_0_106_171
*1099 FILLER_0_106_1711
*1100 FILLER_0_106_1717
*1101 FILLER_0_106_177
*1102 FILLER_0_106_1781
*1103 FILLER_0_106_1787
*1104 FILLER_0_106_1851
*1105 FILLER_0_106_1857
*1106 FILLER_0_106_1921
*1107 FILLER_0_106_1927
*1108 FILLER_0_106_1991
*1109 FILLER_0_106_1997
*1110 FILLER_0_106_2
*1111 FILLER_0_106_2061
*1112 FILLER_0_106_2067
*1113 FILLER_0_106_2131
*1114 FILLER_0_106_2137
*1115 FILLER_0_106_2201
*1116 FILLER_0_106_2207
*1117 FILLER_0_106_2271
*1118 FILLER_0_106_2277
*1119 FILLER_0_106_2341
*1120 FILLER_0_106_2347
*1121 FILLER_0_106_241
*1122 FILLER_0_106_2411
*1123 FILLER_0_106_2417
*1124 FILLER_0_106_247
*1125 FILLER_0_106_2481
*1126 FILLER_0_106_2487
*1127 FILLER_0_106_2551
*1128 FILLER_0_106_2557
*1129 FILLER_0_106_2621
*1130 FILLER_0_106_2627
*1131 FILLER_0_106_2691
*1132 FILLER_0_106_2697
*1133 FILLER_0_106_2761
*1134 FILLER_0_106_2767
*1135 FILLER_0_106_2831
*1136 FILLER_0_106_2837
*1137 FILLER_0_106_2901
*1138 FILLER_0_106_2907
*1139 FILLER_0_106_2971
*1140 FILLER_0_106_2977
*1141 FILLER_0_106_3041
*1142 FILLER_0_106_3047
*1143 FILLER_0_106_311
*1144 FILLER_0_106_3111
*1145 FILLER_0_106_3117
*1146 FILLER_0_106_317
*1147 FILLER_0_106_3181
*1148 FILLER_0_106_3187
*1149 FILLER_0_106_3251
*1150 FILLER_0_106_3257
*1151 FILLER_0_106_3321
*1152 FILLER_0_106_3327
*1153 FILLER_0_106_3391
*1154 FILLER_0_106_3397
*1155 FILLER_0_106_34
*1156 FILLER_0_106_3461
*1157 FILLER_0_106_3467
*1158 FILLER_0_106_3531
*1159 FILLER_0_106_3537
*1160 FILLER_0_106_3601
*1161 FILLER_0_106_3607
*1162 FILLER_0_106_3671
*1163 FILLER_0_106_3677
*1164 FILLER_0_106_37
*1165 FILLER_0_106_3741
*1166 FILLER_0_106_3747
*1167 FILLER_0_106_381
*1168 FILLER_0_106_3811
*1169 FILLER_0_106_3817
*1170 FILLER_0_106_387
*1171 FILLER_0_106_3881
*1172 FILLER_0_106_3887
*1173 FILLER_0_106_3951
*1174 FILLER_0_106_3957
*1175 FILLER_0_106_4021
*1176 FILLER_0_106_4027
*1177 FILLER_0_106_4091
*1178 FILLER_0_106_4097
*1179 FILLER_0_106_4161
*1180 FILLER_0_106_4167
*1181 FILLER_0_106_4231
*1182 FILLER_0_106_4237
*1183 FILLER_0_106_4301
*1184 FILLER_0_106_4307
*1185 FILLER_0_106_4371
*1186 FILLER_0_106_4377
*1187 FILLER_0_106_4441
*1188 FILLER_0_106_4447
*1189 FILLER_0_106_451
*1190 FILLER_0_106_4511
*1191 FILLER_0_106_4517
*1192 FILLER_0_106_457
*1193 FILLER_0_106_4581
*1194 FILLER_0_106_4587
*1195 FILLER_0_106_4651
*1196 FILLER_0_106_4657
*1197 FILLER_0_106_4721
*1198 FILLER_0_106_4727
*1199 FILLER_0_106_4791
*1200 FILLER_0_106_4797
*1201 FILLER_0_106_4861
*1202 FILLER_0_106_4867
*1203 FILLER_0_106_4931
*1204 FILLER_0_106_4937
*1205 FILLER_0_106_4969
*1206 FILLER_0_106_4973
*1207 FILLER_0_106_521
*1208 FILLER_0_106_527
*1209 FILLER_0_106_591
*1210 FILLER_0_106_597
*1211 FILLER_0_106_661
*1212 FILLER_0_106_667
*1213 FILLER_0_106_731
*1214 FILLER_0_106_737
*1215 FILLER_0_106_801
*1216 FILLER_0_106_807
*1217 FILLER_0_106_871
*1218 FILLER_0_106_877
*1219 FILLER_0_106_941
*1220 FILLER_0_106_947
*1221 FILLER_0_107_1046
*1222 FILLER_0_107_1052
*1223 FILLER_0_107_1116
*1224 FILLER_0_107_1122
*1225 FILLER_0_107_1186
*1226 FILLER_0_107_1192
*1227 FILLER_0_107_1256
*1228 FILLER_0_107_1262
*1229 FILLER_0_107_1326
*1230 FILLER_0_107_1332
*1231 FILLER_0_107_136
*1232 FILLER_0_107_1396
*1233 FILLER_0_107_1402
*1234 FILLER_0_107_142
*1235 FILLER_0_107_1466
*1236 FILLER_0_107_1472
*1237 FILLER_0_107_1536
*1238 FILLER_0_107_1542
*1239 FILLER_0_107_1606
*1240 FILLER_0_107_1612
*1241 FILLER_0_107_1676
*1242 FILLER_0_107_1682
*1243 FILLER_0_107_1746
*1244 FILLER_0_107_1752
*1245 FILLER_0_107_1816
*1246 FILLER_0_107_1822
*1247 FILLER_0_107_1886
*1248 FILLER_0_107_1892
*1249 FILLER_0_107_1956
*1250 FILLER_0_107_1962
*1251 FILLER_0_107_2
*1252 FILLER_0_107_2026
*1253 FILLER_0_107_2032
*1254 FILLER_0_107_206
*1255 FILLER_0_107_2096
*1256 FILLER_0_107_2102
*1257 FILLER_0_107_212
*1258 FILLER_0_107_2166
*1259 FILLER_0_107_2172
*1260 FILLER_0_107_2236
*1261 FILLER_0_107_2242
*1262 FILLER_0_107_2306
*1263 FILLER_0_107_2312
*1264 FILLER_0_107_2376
*1265 FILLER_0_107_2382
*1266 FILLER_0_107_2446
*1267 FILLER_0_107_2452
*1268 FILLER_0_107_2516
*1269 FILLER_0_107_2522
*1270 FILLER_0_107_2586
*1271 FILLER_0_107_2592
*1272 FILLER_0_107_2656
*1273 FILLER_0_107_2662
*1274 FILLER_0_107_2726
*1275 FILLER_0_107_2732
*1276 FILLER_0_107_276
*1277 FILLER_0_107_2796
*1278 FILLER_0_107_2802
*1279 FILLER_0_107_282
*1280 FILLER_0_107_2866
*1281 FILLER_0_107_2872
*1282 FILLER_0_107_2936
*1283 FILLER_0_107_2942
*1284 FILLER_0_107_3006
*1285 FILLER_0_107_3012
*1286 FILLER_0_107_3076
*1287 FILLER_0_107_3082
*1288 FILLER_0_107_3146
*1289 FILLER_0_107_3152
*1290 FILLER_0_107_3216
*1291 FILLER_0_107_3222
*1292 FILLER_0_107_3286
*1293 FILLER_0_107_3292
*1294 FILLER_0_107_3356
*1295 FILLER_0_107_3362
*1296 FILLER_0_107_3426
*1297 FILLER_0_107_3432
*1298 FILLER_0_107_346
*1299 FILLER_0_107_3496
*1300 FILLER_0_107_3502
*1301 FILLER_0_107_352
*1302 FILLER_0_107_3566
*1303 FILLER_0_107_3572
*1304 FILLER_0_107_3636
*1305 FILLER_0_107_3642
*1306 FILLER_0_107_3706
*1307 FILLER_0_107_3712
*1308 FILLER_0_107_3776
*1309 FILLER_0_107_3782
*1310 FILLER_0_107_3846
*1311 FILLER_0_107_3852
*1312 FILLER_0_107_3916
*1313 FILLER_0_107_3922
*1314 FILLER_0_107_3986
*1315 FILLER_0_107_3992
*1316 FILLER_0_107_4056
*1317 FILLER_0_107_4062
*1318 FILLER_0_107_4126
*1319 FILLER_0_107_4132
*1320 FILLER_0_107_416
*1321 FILLER_0_107_4196
*1322 FILLER_0_107_4202
*1323 FILLER_0_107_422
*1324 FILLER_0_107_4266
*1325 FILLER_0_107_4272
*1326 FILLER_0_107_4336
*1327 FILLER_0_107_4342
*1328 FILLER_0_107_4406
*1329 FILLER_0_107_4412
*1330 FILLER_0_107_4476
*1331 FILLER_0_107_4482
*1332 FILLER_0_107_4546
*1333 FILLER_0_107_4552
*1334 FILLER_0_107_4616